 xtb: 6.7.1 (edcfbbe)
          04252612373D

 55 57  0     0  0            999 V2000
  -26.7650  -14.6610    5.0020 N   0  0  0  0  0  0  0  0  0  0  0  0
  -27.2210  -15.5330    6.0860 C   0  0  0  0  0  0  0  0  0  0  0  0
  -26.8530  -17.0040    5.8290 C   0  0  0  0  0  0  0  0  0  0  0  0
  -28.7360  -15.3500    6.2750 C   0  0  0  0  0  0  0  0  0  0  0  0
  -26.4810  -17.7150    6.7650 O   0  0  0  0  0  0  0  0  0  0  0  0
  -29.2360  -16.0120    7.5670 C   0  0  0  0  0  0  0  0  0  0  0  0
  -30.7130  -15.7560    7.8500 C   0  0  0  0  0  0  0  0  0  0  0  0
  -31.1870  -16.0880    9.0310 N   0  0  0  0  0  0  0  0  0  0  0  0
  -31.4710  -15.2590    7.0410 O   0  0  0  0  0  0  0  0  0  0  0  0
  -26.6760   -8.9410   12.5810 N   0  0  0  0  0  0  0  0  0  0  0  0
  -27.8900   -8.6170   13.3460 C   0  0  0  0  0  0  0  0  0  0  0  0
  -28.1070   -7.0960   13.4530 C   0  0  0  0  0  0  0  0  0  0  0  0
  -27.7990   -9.2280   14.7540 C   0  0  0  0  0  0  0  0  0  0  0  0
  -29.2210   -6.6220   13.2360 O   0  0  0  0  0  0  0  0  0  0  0  0
  -27.9860  -10.7540   14.7940 C   0  0  0  0  0  0  0  0  0  0  0  0
  -27.7070  -11.3400   16.1800 C   0  0  0  0  0  0  0  0  0  0  0  0
  -27.9140  -12.6200   16.3930 N   0  0  0  0  0  0  0  0  0  0  0  0
  -27.2920  -10.6850   17.1180 O   0  0  0  0  0  0  0  0  0  0  0  0
  -31.2270   -5.8760   11.2600 N   0  0  0  0  0  0  0  0  0  0  0  0
  -32.3510   -5.9640   12.1960 C   0  0  0  0  0  0  0  0  0  0  0  0
  -33.0280   -7.3420   12.2460 C   0  0  0  0  0  0  0  0  0  0  0  0
  -34.0680   -7.4760   12.8890 O   0  0  0  0  0  0  0  0  0  0  0  0
  -32.4720   -8.3620   11.5800 N   0  0  0  0  0  0  0  0  0  0  0  0
  -32.9720   -9.7350   11.6220 C   0  0  0  0  0  0  0  0  0  0  0  0
  -32.2640  -10.5170   12.7290 C   0  0  0  0  0  0  0  0  0  0  0  0
  -32.7780  -10.4160   10.2550 C   0  0  0  0  0  0  0  0  0  0  0  0
  -31.0370  -10.6490   12.7330 O   0  0  0  0  0  0  0  0  0  0  0  0
  -33.6640   -9.8500    9.1310 C   0  0  0  0  0  0  0  0  0  0  0  0
  -33.1940  -10.4090    7.7890 C   0  0  0  0  0  0  0  0  0  0  0  0
  -35.1360  -10.2320    9.3100 C   0  0  0  0  0  0  0  0  0  0  0  0
  -33.0380  -11.0980   13.6460 N   0  0  0  0  0  0  0  0  0  0  0  0
  -33.5185  -12.4240   15.6904 C   0  0  0  0  0  0  0  0  0  0  0  0
  -34.4702  -12.7860   16.6801 C   0  0  0  0  0  0  0  0  0  0  0  0
  -34.1039  -13.0138   17.8099 O   0  0  0  0  0  0  0  0  0  0  0  0
  -35.6408  -12.8642   16.3867 O   0  0  0  0  0  0  0  0  0  0  0  0
  -32.4930  -12.0340   14.6240 C   0  0  0  0  0  0  0  0  0  0  0  0
  -31.9560  -13.2810   13.9130 C   0  0  0  0  0  0  0  0  0  0  0  0
  -32.6850  -14.0530   13.2860 O   0  0  0  0  0  0  0  0  0  0  0  0
  -30.6460  -13.4910   14.0150 N   0  0  0  0  0  0  0  0  0  0  0  0
  -29.9990  -14.6660   13.4500 C   0  0  0  0  0  0  0  0  0  0  0  0
  -30.3970  -15.9090   14.2690 C   0  0  0  0  0  0  0  0  0  0  0  0
  -28.4920  -14.4010   13.3710 C   0  0  0  0  0  0  0  0  0  0  0  0
  -29.8550  -16.1580   15.3440 O   0  0  0  0  0  0  0  0  0  0  0  0
  -27.7140  -15.5050   12.7030 C   0  0  0  0  0  0  0  0  0  0  0  0
  -27.2080  -16.5470   13.4970 C   0  0  0  0  0  0  0  0  0  0  0  0
  -27.4890  -15.4890   11.3120 C   0  0  0  0  0  0  0  0  0  0  0  0
  -26.4850  -17.5870   12.9020 C   0  0  0  0  0  0  0  0  0  0  0  0
  -26.7660  -16.5400   10.7110 C   0  0  0  0  0  0  0  0  0  0  0  0
  -25.5810  -18.6210   10.9610 O   0  0  0  0  0  0  0  0  0  0  0  0
  -26.2680  -17.5920   11.5100 C   0  0  0  0  0  0  0  0  0  0  0  0
  -31.3700  -16.6760   13.7650 N   0  0  0  0  0  0  0  0  0  0  0  0
  -32.1450  -17.6730   14.5210 C   0  0  0  0  0  0  0  0  0  0  0  0
  -31.3660  -18.8740   15.1130 C   0  0  0  0  0  0  0  0  0  0  0  0
  -33.2950  -18.1370   13.6170 C   0  0  0  0  0  0  0  0  0  0  0  0
  -31.9390  -19.6500   15.8720 O   0  0  0  0  0  0  0  0  0  0  0  0
  1  2  2  0  0  0  0
  2  3  1  0  0  0  0
  2  4  1  0  0  0  0
  3  5  2  0  0  0  0
  4  6  2  0  0  0  0
  6  7  1  0  0  0  0
  7  8  2  0  0  0  0
  7  9  4  0  0  0  0
 10 11  2  0  0  0  0
 11 12  1  0  0  0  0
 11 13  1  0  0  0  0
 12 14  2  0  0  0  0
 13 15  2  0  0  0  0
 15 16  1  0  0  0  0
 16 17  4  0  0  0  0
 16 18  4  0  0  0  0
 17 18  1  0  0  0  0
 19 20  3  0  0  0  0
 20 21  1  0  0  0  0
 21 22  2  0  0  0  0
 21 23  4  0  0  0  0
 23 24  4  0  0  0  0
 24 25  1  0  0  0  0
 24 26  4  0  0  0  0
 25 27  2  0  0  0  0
 26 28  1  0  0  0  0
 28 29  4  0  0  0  0
 26 30  1  0  0  0  0
 28 30  4  0  0  0  0
 29 30  1  0  0  0  0
 25 31  4  0  0  0  0
 32 33  1  0  0  0  0
 33 34  4  0  0  0  0
 33 35  4  0  0  0  0
 31 36  4  0  0  0  0
 32 36  2  0  0  0  0
 36 37  1  0  0  0  0
 37 38  2  0  0  0  0
 37 39  4  0  0  0  0
 39 40  4  0  0  0  0
 40 41  1  0  0  0  0
 40 42  4  0  0  0  0
 41 43  2  0  0  0  0
 42 44  4  0  0  0  0
 44 45  4  0  0  0  0
 44 46  4  0  0  0  0
 45 47  2  0  0  0  0
 46 48  2  0  0  0  0
 47 50  1  0  0  0  0
 48 50  1  0  0  0  0
 49 50  2  0  0  0  0
 41 51  4  0  0  0  0
 51 52  1  0  0  0  0
 52 53  1  0  0  0  0
 51 54  1  0  0  0  0
 52 54  2  0  0  0  0
 53 55  2  0  0  0  0
M  END
