 xtb: 6.7.1 (edcfbbe)
          04252618033D

 55 77  0     0  0            999 V2000
  -28.9920  -11.6941    6.6902 N   0  0  0  0  0  0  0  0  0  0  0  0
  -28.1301  -13.6035    9.0211 C   0  0  0  0  0  0  0  0  0  0  0  0
  -28.9543  -15.8249    8.3729 C   0  0  0  0  0  0  0  0  0  0  0  0
  -30.3415  -13.9837    8.4716 C   0  0  0  0  0  0  0  0  0  0  0  0
  -28.6044  -15.2156   10.2710 O   0  0  0  0  0  0  0  0  0  0  0  0
  -29.2045  -16.9666   11.2378 C   0  0  0  0  0  0  0  0  0  0  0  0
  -30.7292  -15.7623    9.9640 C   0  0  0  0  0  0  0  0  0  0  0  0
  -33.8658  -16.2689   10.2423 N   0  0  0  0  0  0  0  0  0  0  0  0
  -29.6971  -12.1034    9.3574 O   0  0  0  0  0  0  0  0  0  0  0  0
  -25.0985  -11.8256   12.8737 N   0  0  0  0  0  0  0  0  0  0  0  0
  -30.0496   -9.9014   11.6051 C   0  0  0  0  0  0  0  0  0  0  0  0
  -29.2477   -9.0739   13.6349 C   0  0  0  0  0  0  0  0  0  0  0  0
  -29.1036  -11.3389   14.1330 C   0  0  0  0  0  0  0  0  0  0  0  0
  -30.7151  -10.1148   14.8273 O   0  0  0  0  0  0  0  0  0  0  0  0
  -27.9127  -10.4558   12.3536 C   0  0  0  0  0  0  0  0  0  0  0  0
  -28.9346  -12.6002   16.0772 C   0  0  0  0  0  0  0  0  0  0  0  0
  -29.1415  -16.5120   16.6751 N   0  0  0  0  0  0  0  0  0  0  0  0
  -27.2560  -12.3658   14.7682 O   0  0  0  0  0  0  0  0  0  0  0  0
  -30.2424   -6.9863   11.2039 N   0  0  0  0  0  0  0  0  0  0  0  0
  -31.5074   -8.9050   13.3005 C   0  0  0  0  0  0  0  0  0  0  0  0
  -32.3512   -9.7322   11.3201 C   0  0  0  0  0  0  0  0  0  0  0  0
  -33.1922  -10.1537   13.2860 O   0  0  0  0  0  0  0  0  0  0  0  0
  -30.3449   -9.3568    8.7904 N   0  0  0  0  0  0  0  0  0  0  0  0
  -33.4601  -11.7158   11.8785 C   0  0  0  0  0  0  0  0  0  0  0  0
  -31.3163  -11.2897   13.0643 C   0  0  0  0  0  0  0  0  0  0  0  0
  -31.3017  -11.7425   10.7551 C   0  0  0  0  0  0  0  0  0  0  0  0
  -29.5786  -11.8653   12.0529 O   0  0  0  0  0  0  0  0  0  0  0  0
  -33.3057  -11.1659    9.6779 C   0  0  0  0  0  0  0  0  0  0  0  0
  -31.6446  -12.0986    8.4477 C   0  0  0  0  0  0  0  0  0  0  0  0
  -32.0669  -13.8352    9.9664 C   0  0  0  0  0  0  0  0  0  0  0  0
  -36.0138  -11.6376   13.2560 N   0  0  0  0  0  0  0  0  0  0  0  0
  -33.1577  -12.1443   14.1736 C   0  0  0  0  0  0  0  0  0  0  0  0
  -34.0404  -14.0541   13.1921 C   0  0  0  0  0  0  0  0  0  0  0  0
  -32.9745  -13.0346   16.0949 O   0  0  0  0  0  0  0  0  0  0  0  0
  -33.8507  -13.6735   11.1239 O   0  0  0  0  0  0  0  0  0  0  0  0
  -31.0686  -12.1643   15.2420 C   0  0  0  0  0  0  0  0  0  0  0  0
  -31.9766  -13.4510   12.2626 C   0  0  0  0  0  0  0  0  0  0  0  0
  -30.7401  -15.1795   11.9334 O   0  0  0  0  0  0  0  0  0  0  0  0
  -31.3074  -13.5487   17.9852 N   0  0  0  0  0  0  0  0  0  0  0  0
  -29.8489  -13.5912   10.8908 C   0  0  0  0  0  0  0  0  0  0  0  0
  -30.0359  -13.3788   13.4817 C   0  0  0  0  0  0  0  0  0  0  0  0
  -27.8322  -12.8118   12.7633 C   0  0  0  0  0  0  0  0  0  0  0  0
  -30.1263  -14.2007   15.4958 O   0  0  0  0  0  0  0  0  0  0  0  0
  -28.6753  -14.9815   12.4208 C   0  0  0  0  0  0  0  0  0  0  0  0
  -28.1847  -14.3025   14.6364 C   0  0  0  0  0  0  0  0  0  0  0  0
  -28.0185  -11.9087   10.5867 C   0  0  0  0  0  0  0  0  0  0  0  0
  -27.6293  -16.4719   13.8817 C   0  0  0  0  0  0  0  0  0  0  0  0
  -26.9669  -14.0093   10.9676 C   0  0  0  0  0  0  0  0  0  0  0  0
  -27.0747  -16.1180   11.5315 O   0  0  0  0  0  0  0  0  0  0  0  0
  -26.4422  -14.6812   13.1342 C   0  0  0  0  0  0  0  0  0  0  0  0
  -31.7737  -18.3854   11.9585 N   0  0  0  0  0  0  0  0  0  0  0  0
  -32.0532  -14.1742   14.5407 C   0  0  0  0  0  0  0  0  0  0  0  0
  -30.3600  -15.6757   13.9641 C   0  0  0  0  0  0  0  0  0  0  0  0
  -32.4809  -15.7237   12.8887 C   0  0  0  0  0  0  0  0  0  0  0  0
  -29.4433  -17.4186   13.2837 O   0  0  0  0  0  0  0  0  0  0  0  0
  2  3  1  0  0  0  0
  2  4  1  0  0  0  0
  3  4  1  0  0  0  0
  2  5  1  0  0  0  0
  3  5  1  0  0  0  0
  5  6  1  0  0  0  0
  3  7  1  0  0  0  0
  4  7  1  0  0  0  0
  6  7  1  0  0  0  0
  2  9  1  0  0  0  0
  4  9  1  0  0  0  0
 11 12  1  0  0  0  0
 12 14  1  0  0  0  0
 13 14  1  0  0  0  0
 12 15  1  0  0  0  0
 13 15  1  0  0  0  0
 13 16  1  0  0  0  0
 13 18  1  0  0  0  0
 16 18  1  0  0  0  0
 11 20  1  0  0  0  0
 12 20  1  0  0  0  0
 14 20  1  0  0  0  0
 11 21  1  0  0  0  0
 20 22  1  0  0  0  0
 21 22  1  0  0  0  0
  1 23  1  0  0  0  0
 19 23  1  0  0  0  0
 22 24  1  0  0  0  0
 14 25  1  0  0  0  0
 22 25  1  0  0  0  0
 11 27  1  0  0  0  0
 21 28  1  0  0  0  0
 24 28  1  0  0  0  0
  4 29  1  0  0  0  0
  9 29  1  0  0  0  0
 26 29  1  0  0  0  0
 28 29  1  0  0  0  0
  7 30  1  0  0  0  0
 29 30  1  0  0  0  0
 32 33  1  0  0  0  0
 32 34  1  0  0  0  0
 24 35  1  0  0  0  0
 30 35  1  0  0  0  0
 33 35  1  0  0  0  0
 14 36  1  0  0  0  0
 16 36  1  0  0  0  0
 34 36  1  0  0  0  0
 35 37  1  0  0  0  0
  7 38  1  0  0  0  0
  5 40  1  0  0  0  0
  9 40  1  0  0  0  0
 18 42  1  0  0  0  0
 16 43  1  0  0  0  0
 18 45  1  0  0  0  0
 43 45  1  0  0  0  0
  9 46  1  0  0  0  0
 15 46  1  0  0  0  0
 27 46  1  0  0  0  0
 44 47  1  0  0  0  0
  2 48  1  0  0  0  0
 46 48  1  0  0  0  0
  6 49  1  0  0  0  0
 44 49  1  0  0  0  0
 48 49  1  0  0  0  0
 47 50  1  0  0  0  0
 48 50  1  0  0  0  0
 49 50  1  0  0  0  0
  8 51  1  0  0  0  0
 34 52  1  0  0  0  0
 38 53  1  0  0  0  0
 33 54  1  0  0  0  0
 38 54  1  0  0  0  0
 52 54  1  0  0  0  0
 53 54  1  0  0  0  0
  6 55  1  0  0  0  0
 47 55  1  0  0  0  0
 53 55  1  0  0  0  0
M  END
