 xtb: 6.7.1 (edcfbbe)
          04252618063D

 56 74  0     0  0            999 V2000
  -30.8405   -0.6839   -0.3466 N   0  0  0  0  0  0  0  0  0  0  0  0
  -34.1282   -4.8352   -0.7692 C   0  0  0  0  0  0  0  0  0  0  0  0
  -31.8490   -5.0020   -0.1187 C   0  0  0  0  0  0  0  0  0  0  0  0
  -32.4247   -4.5976   -2.4333 C   0  0  0  0  0  0  0  0  0  0  0  0
  -30.4303   -4.5938   -1.6845 O   0  0  0  0  0  0  0  0  0  0  0  0
  -32.9827   -2.9495   -0.1234 C   0  0  0  0  0  0  0  0  0  0  0  0
  -31.6519   -3.5900    1.5079 O   0  0  0  0  0  0  0  0  0  0  0  0
  -31.7647   -2.6521   -1.8261 O   0  0  0  0  0  0  0  0  0  0  0  0
  -34.3987   -4.1635    2.3133 N   0  0  0  0  0  0  0  0  0  0  0  0
  -30.0610   -3.5125    0.1202 C   0  0  0  0  0  0  0  0  0  0  0  0
  -31.2754   -6.5764   -1.8188 C   0  0  0  0  0  0  0  0  0  0  0  0
  -31.2002   -7.2214    0.3825 C   0  0  0  0  0  0  0  0  0  0  0  0
  -33.2545   -6.5742    0.0003 O   0  0  0  0  0  0  0  0  0  0  0  0
  -29.3929   -5.7101   -0.1742 C   0  0  0  0  0  0  0  0  0  0  0  0
  -30.5230   -5.4412    1.7935 C   0  0  0  0  0  0  0  0  0  0  0  0
  -29.0047   -7.4537    1.3016 C   0  0  0  0  0  0  0  0  0  0  0  0
  -30.0951   -3.2971   -4.0179 N   0  0  0  0  0  0  0  0  0  0  0  0
  -32.4136   -8.3289   -3.0396 C   0  0  0  0  0  0  0  0  0  0  0  0
  -31.8542   -6.2727   -4.0183 C   0  0  0  0  0  0  0  0  0  0  0  0
  -31.4012   -8.7615   -5.0544 C   0  0  0  0  0  0  0  0  0  0  0  0
  -34.1343   -9.3035   -2.0241 O   0  0  0  0  0  0  0  0  0  0  0  0
  -29.2301   -6.0942   -5.6469 N   0  0  0  0  0  0  0  0  0  0  0  0
  -33.6468   -6.5431   -2.2059 C   0  0  0  0  0  0  0  0  0  0  0  0
  -33.0495   -8.2466   -0.7935 C   0  0  0  0  0  0  0  0  0  0  0  0
  -31.3040   -8.6683   -1.3003 O   0  0  0  0  0  0  0  0  0  0  0  0
  -35.5707   -7.2970    1.1766 N   0  0  0  0  0  0  0  0  0  0  0  0
  -32.7903   -8.6026    1.4415 C   0  0  0  0  0  0  0  0  0  0  0  0
  -32.3854  -10.4542   -1.6473 C   0  0  0  0  0  0  0  0  0  0  0  0
  -34.0771  -10.0353    0.0163 C   0  0  0  0  0  0  0  0  0  0  0  0
  -31.8132  -10.1325    0.3592 O   0  0  0  0  0  0  0  0  0  0  0  0
  -36.3265   -7.6527   -1.9293 N   0  0  0  0  0  0  0  0  0  0  0  0
  -32.8962  -11.9470    0.1552 C   0  0  0  0  0  0  0  0  0  0  0  0
  -29.9815  -10.2535   -0.9781 C   0  0  0  0  0  0  0  0  0  0  0  0
  -30.7274  -10.0077   -3.2238 C   0  0  0  0  0  0  0  0  0  0  0  0
  -29.0309  -12.1480   -0.2599 O   0  0  0  0  0  0  0  0  0  0  0  0
  -31.7214  -12.1588   -3.1694 C   0  0  0  0  0  0  0  0  0  0  0  0
  -32.9952  -10.3939   -3.8831 C   0  0  0  0  0  0  0  0  0  0  0  0
  -30.9959  -12.3495   -1.0236 C   0  0  0  0  0  0  0  0  0  0  0  0
  -28.3754   -9.4057   -5.5429 N   0  0  0  0  0  0  0  0  0  0  0  0
  -29.3042  -11.7683   -2.6210 C   0  0  0  0  0  0  0  0  0  0  0  0
  -27.6251  -10.9433   -1.2509 C   0  0  0  0  0  0  0  0  0  0  0  0
  -29.3918   -7.9001   -1.0523 C   0  0  0  0  0  0  0  0  0  0  0  0
  -27.3204   -8.2611   -1.1371 O   0  0  0  0  0  0  0  0  0  0  0  0
  -30.0739   -7.8127   -3.3877 C   0  0  0  0  0  0  0  0  0  0  0  0
  -28.5372   -9.4098   -2.6328 C   0  0  0  0  0  0  0  0  0  0  0  0
  -30.4884  -11.7601   -5.8168 N   0  0  0  0  0  0  0  0  0  0  0  0
  -25.0744   -9.2304   -1.3626 N   0  0  0  0  0  0  0  0  0  0  0  0
  -26.7497   -7.2363   -3.7671 N   0  0  0  0  0  0  0  0  0  0  0  0
  -29.0340   -5.9942   -2.4355 C   0  0  0  0  0  0  0  0  0  0  0  0
  -32.2477  -10.6634    3.3080 N   0  0  0  0  0  0  0  0  0  0  0  0
  -28.1945   -9.4392    0.3772 C   0  0  0  0  0  0  0  0  0  0  0  0
  -30.1612  -11.1585    1.2107 C   0  0  0  0  0  0  0  0  0  0  0  0
  -32.6002   -6.3490    2.0343 C   0  0  0  0  0  0  0  0  0  0  0  0
  -30.2523   -9.0763    0.8039 O   0  0  0  0  0  0  0  0  0  0  0  0
  -29.1991   -9.4441    2.5242 C   0  0  0  0  0  0  0  0  0  0  0  0
  -30.9142   -7.9061    2.6122 C   0  0  0  0  0  0  0  0  0  0  0  0
  2  4  1  0  0  0  0
  4  5  1  0  0  0  0
  2  6  1  0  0  0  0
  3  7  1  0  0  0  0
  6  7  1  0  0  0  0
  1  8  1  0  0  0  0
  4  8  1  0  0  0  0
  6  8  1  0  0  0  0
  5 10  1  0  0  0  0
  7 10  1  0  0  0  0
  2 13  1  0  0  0  0
  3 13  1  0  0  0  0
  5 14  1  0  0  0  0
 10 14  1  0  0  0  0
  7 15  1  0  0  0  0
 14 15  1  0  0  0  0
  4 19  1  0  0  0  0
 11 19  1  0  0  0  0
 18 19  1  0  0  0  0
 18 20  1  0  0  0  0
 17 22  1  0  0  0  0
  2 23  1  0  0  0  0
  4 23  1  0  0  0  0
 13 24  1  0  0  0  0
 21 24  1  0  0  0  0
 18 25  1  0  0  0  0
 24 25  1  0  0  0  0
 21 28  1  0  0  0  0
 21 29  1  0  0  0  0
 24 29  1  0  0  0  0
 27 30  1  0  0  0  0
 26 31  1  0  0  0  0
 28 32  1  0  0  0  0
 29 32  1  0  0  0  0
 30 32  1  0  0  0  0
 20 34  1  0  0  0  0
 34 36  1  0  0  0  0
 18 37  1  0  0  0  0
 20 37  1  0  0  0  0
 36 37  1  0  0  0  0
 32 38  1  0  0  0  0
 35 38  1  0  0  0  0
 36 38  1  0  0  0  0
 34 40  1  0  0  0  0
 36 40  1  0  0  0  0
 35 41  1  0  0  0  0
 40 41  1  0  0  0  0
 42 43  1  0  0  0  0
 11 44  1  0  0  0  0
 20 44  1  0  0  0  0
 41 45  1  0  0  0  0
 43 45  1  0  0  0  0
 39 46  1  0  0  0  0
 43 47  1  0  0  0  0
 22 48  1  0  0  0  0
 39 48  1  0  0  0  0
  5 49  1  0  0  0  0
 14 49  1  0  0  0  0
 42 49  1  0  0  0  0
 44 49  1  0  0  0  0
 41 51  1  0  0  0  0
 43 51  1  0  0  0  0
 30 52  1  0  0  0  0
 35 52  1  0  0  0  0
 13 53  1  0  0  0  0
 15 53  1  0  0  0  0
 16 54  1  0  0  0  0
 51 54  1  0  0  0  0
 16 55  1  0  0  0  0
 52 55  1  0  0  0  0
 54 55  1  0  0  0  0
 16 56  1  0  0  0  0
 27 56  1  0  0  0  0
 55 56  1  0  0  0  0
M  END
