 xtb: 6.7.1 (edcfbbe)
          04252612013D

 53 58  0     0  0            999 V2000
  -32.2480   -0.1440   -0.5860 N   0  0  0  0  0  0  0  0  0  0  0  0
  -33.0310   -1.3540   -0.3710 C   0  0  0  0  0  0  0  0  0  0  0  0
  -32.0940   -2.5070   -0.7230 C   0  0  0  0  0  0  0  0  0  0  0  0
  -34.3240   -1.3120   -1.1970 C   0  0  0  0  0  0  0  0  0  0  0  0
  -31.7060   -2.6700   -1.8820 O   0  0  0  0  0  0  0  0  0  0  0  0
  -35.1180   -0.0500   -0.8510 C   0  0  0  0  0  0  0  0  0  0  0  0
  -35.3160    0.1960    0.3590 O   0  0  0  0  0  0  0  0  0  0  0  0
  -35.3600    0.7510   -1.7810 O   0  0  0  0  0  0  0  0  0  0  0  0
  -31.6250   -3.2380    0.2910 N   0  0  0  0  0  0  0  0  0  0  0  0
  -31.0010   -4.5280    0.0400 C   0  0  0  0  0  0  0  0  0  0  0  0
  -32.1340   -5.4260   -0.4530 C   0  0  0  0  0  0  0  0  0  0  0  0
  -30.3140   -5.1090    1.2940 C   0  0  0  0  0  0  0  0  0  0  0  0
  -32.9860   -5.8350    0.3300 O   0  0  0  0  0  0  0  0  0  0  0  0
  -28.8860   -4.5930    1.5510 C   0  0  0  0  0  0  0  0  0  0  0  0
  -28.8620   -3.1760    2.1280 C   0  0  0  0  0  0  0  0  0  0  0  0
  -28.1640   -5.5200    2.5290 C   0  0  0  0  0  0  0  0  0  0  0  0
  -32.1600   -5.6960   -1.7580 N   0  0  0  0  0  0  0  0  0  0  0  0
  -33.0280   -6.7160   -2.3450 C   0  0  0  0  0  0  0  0  0  0  0  0
  -32.8750   -7.9970   -1.5240 C   0  0  0  0  0  0  0  0  0  0  0  0
  -32.6100   -6.9640   -3.8010 C   0  0  0  0  0  0  0  0  0  0  0  0
  -31.7570   -8.5090   -1.4590 O   0  0  0  0  0  0  0  0  0  0  0  0
  -31.2180   -7.2320   -3.8710 O   0  0  0  0  0  0  0  0  0  0  0  0
  -33.9530   -8.4750   -0.8900 N   0  0  0  0  0  0  0  0  0  0  0  0
  -33.8930   -9.4300    0.2280 C   0  0  0  0  0  0  0  0  0  0  0  0
  -33.0260  -10.6780   -0.0410 C   0  0  0  0  0  0  0  0  0  0  0  0
  -35.3320   -9.8190    0.5890 C   0  0  0  0  0  0  0  0  0  0  0  0
  -32.3180  -11.1350    0.8510 O   0  0  0  0  0  0  0  0  0  0  0  0
  -32.9850  -11.1260   -1.2990 N   0  0  0  0  0  0  0  0  0  0  0  0
  -32.0780  -12.1460   -1.8430 C   0  0  0  0  0  0  0  0  0  0  0  0
  -30.6160  -12.0060   -1.3540 C   0  0  0  0  0  0  0  0  0  0  0  0
  -32.1310  -12.0380   -3.3850 C   0  0  0  0  0  0  0  0  0  0  0  0
  -30.0000  -12.9840   -0.9490 O   0  0  0  0  0  0  0  0  0  0  0  0
  -33.5320  -12.1850   -4.0200 C   0  0  0  0  0  0  0  0  0  0  0  0
  -33.4700  -11.8650   -5.5140 C   0  0  0  0  0  0  0  0  0  0  0  0
  -34.1030  -13.5890   -3.8430 C   0  0  0  0  0  0  0  0  0  0  0  0
  -30.0720  -10.7790   -1.3090 N   0  0  0  0  0  0  0  0  0  0  0  0
  -28.7010  -10.4860   -0.8360 C   0  0  0  0  0  0  0  0  0  0  0  0
  -28.5000  -10.7460    0.6580 C   0  0  0  0  0  0  0  0  0  0  0  0
  -28.3500   -9.0130   -1.1210 C   0  0  0  0  0  0  0  0  0  0  0  0
  -27.3790  -10.9940    1.0870 O   0  0  0  0  0  0  0  0  0  0  0  0
  -28.1410   -8.6740   -2.6020 C   0  0  0  0  0  0  0  0  0  0  0  0
  -26.9220   -9.4040   -3.1740 C   0  0  0  0  0  0  0  0  0  0  0  0
  -26.5750   -8.9090   -4.5210 N   0  0  0  0  0  0  0  0  0  0  0  0
  -24.2920   -8.9020   -4.2750 N   0  0  0  0  0  0  0  0  0  0  0  0
  -25.1960   -8.3980   -6.2520 N   0  0  0  0  0  0  0  0  0  0  0  0
  -25.3600   -8.7350   -5.0030 C   0  0  0  0  0  0  0  0  0  0  0  0
  -29.5590  -10.6340    1.4560 N   0  0  0  0  0  0  0  0  0  0  0  0
  -29.5110  -10.8670    2.9060 C   0  0  0  0  0  0  0  0  0  0  0  0
  -29.5480  -12.3680    3.1890 C   0  0  0  0  0  0  0  0  0  0  0  0
  -30.6510  -10.1130    3.6200 C   0  0  0  0  0  0  0  0  0  0  0  0
  -28.7850  -12.8500    4.0220 O   0  0  0  0  0  0  0  0  0  0  0  0
  -30.5560  -10.2700    5.1370 C   0  0  0  0  0  0  0  0  0  0  0  0
  -30.6030   -8.6070    3.3090 C   0  0  0  0  0  0  0  0  0  0  0  0
  1  2  2  0  0  0  0
  2  3  1  0  0  0  0
  1  4  1  0  0  0  0
  2  4  4  0  0  0  0
  3  5  2  0  0  0  0
  4  6  1  0  0  0  0
  6  7  2  0  0  0  0
  6  8  2  0  0  0  0
  3  9  4  0  0  0  0
  9 10  4  0  0  0  0
 10 11  1  0  0  0  0
 10 12  4  0  0  0  0
 11 13  2  0  0  0  0
 12 14  1  0  0  0  0
 12 15  1  0  0  0  0
 14 15  4  0  0  0  0
 14 16  4  0  0  0  0
 15 16  1  0  0  0  0
 11 17  4  0  0  0  0
 17 18  2  0  0  0  0
 18 19  1  0  0  0  0
 18 20  1  0  0  0  0
 19 21  2  0  0  0  0
 20 22  2  0  0  0  0
 19 23  4  0  0  0  0
 23 24  1  0  0  0  0
 24 25  1  0  0  0  0
 24 26  2  0  0  0  0
 25 27  2  0  0  0  0
 25 28  4  0  0  0  0
 28 29  4  0  0  0  0
 29 30  1  0  0  0  0
 29 31  4  0  0  0  0
 30 32  2  0  0  0  0
 31 33  1  0  0  0  0
 33 34  4  0  0  0  0
 33 35  4  0  0  0  0
 34 35  1  0  0  0  0
 30 36  4  0  0  0  0
 36 37  4  0  0  0  0
 37 38  1  0  0  0  0
 37 39  4  0  0  0  0
 38 40  2  0  0  0  0
 39 41  2  0  0  0  0
 41 42  2  0  0  0  0
 42 43  2  0  0  0  0
 44 45  1  0  0  0  0
 43 46  1  0  0  0  0
 44 46  4  0  0  0  0
 45 46  4  0  0  0  0
 38 47  4  0  0  0  0
 47 48  4  0  0  0  0
 48 49  1  0  0  0  0
 48 50  1  0  0  0  0
 49 51  2  0  0  0  0
 50 52  4  0  0  0  0
 50 53  4  0  0  0  0
 52 53  1  0  0  0  0
M  END
